test/data/opendss/line_series.dss
Clear
New Circuit.line_series
~ basekv=0.4   pu=1.0  MVAsc1=1e6  MVAsc3=1e6

!Define Linecodes

New linecode.lc1 nphases=3 basefreq=60
~ rmatrix = ( 0.1 | 0.04 0.1 | 0.04 0.04 0.1 )
~ xmatrix = ( 0.06 | 0.02 0.06 | 0.02 0.02 0.06)
~ cmatrix = ( 50.0 | 0 50.0 | 0 0 50.0 )


New linecode.lc2 nphases=3 basefreq=60
~ rmatrix = ( 0.1 | 0.05 0.1 | 0.05 0.05 0.1 )
~ xmatrix = (0.07 | 0.03 0.07 | 0.03 0.03 0.07 )
~ cmatrix = (60.0 | 0 60.0 | 0 0 60.0 )

!Define lines

New Line.line1   Bus1=sourcebus.1.2.3  bus1.1.2.3  linecode = lc1  length=1
New Line.line2   Bus1=bus1.1.2.3  bus2.1.2.3  linecode = lc2  length=1
New Line.line3   Bus1=bus2.1.2.3  bus3.1.2.3  linecode = lc1  length=1
New Line.line4   Bus1=bus3.1.2.3  bus4.1.2.3  linecode = lc2  length=1
New Line.line5   Bus1=bus4.1.2.3  bus5.1.2.3  linecode = lc1  length=1
New Line.line6   Bus1=bus5.1.2.3  bus6.1.2.3  linecode = lc2  length=1
New Line.line7   Bus1=bus6.1.2.3  bus7.1.2.3  linecode = lc1  length=1
New Line.line8   Bus1=bus3.1.2.3  bus8.1.2.3  linecode = lc2  length=1
New Line.line9   Bus1=bus8.1.2.3  bus9.1.2.3  linecode = lc1  length=1

!Loads - single phase

New Load.l1 phases=1  bus7.1.0   ( 0.4 3 sqrt / )   kW=6   kvar=3  model=1  daily=ls1
New Load.l2 phases=1  bus7.2.0   ( 0.4 3 sqrt / )   kW=6   kvar=3  model=1  daily=ls1
New Load.l3 phases=1  bus7.3.0   ( 0.4 3 sqrt / )   kW=6   kvar=3  model=1  daily=ls1

New Load.l4 phases=1  bus9.1.0   ( 0.4 3 sqrt / )   kW=6   kvar=3  model=1  daily=ls1
New Load.l5 phases=1  bus9.2.0   ( 0.4 3 sqrt / )   kW=6   kvar=3  model=1  daily=ls1
New Load.l6 phases=1  bus9.3.0   ( 0.4 3 sqrt / )   kW=6   kvar=3  model=1  daily=ls1


Set voltagebases=[0.4]
Set tolerance=0.000001
set defaultbasefreq=60
Calcvoltagebases

Solve
